CRYSTAL
# Primitive lattice vectors in Angstrom
PRIMVEC
 3.34889826988383 0.00000000000000 1.93348731759466
 1.11629942327697 3.15737156819720 1.93348731759466
 0.00000000000000 0.00000000000000 3.86697463518931
# Cartesian coordinates in Angstrom.
PRIMCOORD
 2 1
14     0.00000000000000     0.00000000000000     0.00000000000000
14     1.11629942329020     0.78934289204930     1.93348731759466