 CRYSTAL
 PRIMVEC
   2.45650  -4.25478   0.00000
   2.45650   4.25478   0.00000
   0.00000   0.00000   5.40500
 PRIMCOORD
   9  1
  14  -2.28455   0.00000   1.80167
  14   1.14227  -1.97847   0.00000
  14   1.14227   1.97847   3.60333
   8   1.68762  -0.60843   0.64860
   8  -1.37073  -1.15730   2.45027
   8  -0.31689   1.76573   4.25193
   8  -0.31689  -1.76573  -0.64860
   8   1.68762   0.60843   2.95473
   8  -1.37073   1.15730   1.15307
